units(length='cm', time='s', quantity='molec', act_energy='K')
ideal_gas(name='ch4_plasma',
          elements='O H C N E Ar',
          species=['''gri30: H2      H       O       O2      OH      H2O     HO2
                     H2O2    C       CH      CH2     CH2(S)  CH3     CH4
                     CO      CO2     HCO     CH2O    CH3O    N2''',
                   '''ch4_ion_sim: E  HCO^+   H3O^+''',
                   '''ch4_starik: O2(a1dg)  O2(b1sg)  O3'''],
          reactions=['gri30: all', 'ch4_ion_sim: all', 'ch4_starik: all', 'all'],
          transport='Mix',
          options=['skip_undeclared_species', 'skip_undeclared_third_bodies'],
          initial_state=state(temperature=300.0, pressure=OneAtm))

#-------------------------------------------------------------------------------
# Reaction data
#-------------------------------------------------------------------------------
reaction('E + O2 => E + O2(a1dg)', [7.59E-11, 0.0, 12466])
reaction('E + O2 => E + O2(b1sg)', [9.31E-11, 0.0, 20579])




