units(length='cm', time='s', quantity='mol', act_energy='cal/mol')

ideal_gas(name='h2airplasma',
       elements=' O  H  Ar  N  E ',
       species=['''gri30: H2  H  O  O2  OH  H2O  HO2  H2O2  N2  N  AR''',
                'N2(A3SU) N2(B3) N2(A1) N2(C3)',
                'N(2D)',
                'O(1D)  O(1S)',
                'O2^+  N2^+  H2^+  H2O^+  E'],
       reactions=['gri30: all', 'all'],
       transport='Mix',
       options=['skip_undeclared_species', 'skip_undeclared_third_bodies'],
       initial_state=state(temperature=300.0, pressure=OneAtm))

#-------------------------------------------------------------------------------
# Species data
#-------------------------------------------------------------------------------
species(name = "N2(A3SU)",
    atoms = " N:2 ",
    thermo = (
       NASA( [  300.00,  1000.00], [  3.298677000E+00,   1.408240400E-03, 
               -3.963222000E-06,   5.641515000E-09,  -2.444854000E-12,
               -1.020899900E+03,   3.950372000E+00] ),
       NASA( [ 1000.00,  5000.00], [  2.926640000E+00,   1.487976800E-03, 
               -5.684760000E-07,   1.009703800E-10,  -6.753351000E-15,
               -9.227977000E+02,   5.980528000E+00] )
             ),
    transport = gas_transport(
                     geom = "linear",
                     diam =     3.62,
                     well_depth =    97.53,
                     polar =     1.76,
                     rot_relax =     4.00),
    note = "121286"
       )

species(name = "N2(B3)",
    atoms = " N:2 ",
    thermo = (
       NASA( [  300.00,  1000.00], [  3.298677000E+00,   1.408240400E-03, 
               -3.963222000E-06,   5.641515000E-09,  -2.444854000E-12,
               -1.020899900E+03,   3.950372000E+00] ),
       NASA( [ 1000.00,  5000.00], [  2.926640000E+00,   1.487976800E-03, 
               -5.684760000E-07,   1.009703800E-10,  -6.753351000E-15,
               -9.227977000E+02,   5.980528000E+00] )
             ),
    transport = gas_transport(
                     geom = "linear",
                     diam =     3.62,
                     well_depth =    97.53,
                     polar =     1.76,
                     rot_relax =     4.00),
    note = "121286"
       )

species(name = "N2(A1)",
    atoms = " N:2 ",
    thermo = (
       NASA( [  300.00,  1000.00], [  3.298677000E+00,   1.408240400E-03, 
               -3.963222000E-06,   5.641515000E-09,  -2.444854000E-12,
               -1.020899900E+03,   3.950372000E+00] ),
       NASA( [ 1000.00,  5000.00], [  2.926640000E+00,   1.487976800E-03, 
               -5.684760000E-07,   1.009703800E-10,  -6.753351000E-15,
               -9.227977000E+02,   5.980528000E+00] )
             ),
    transport = gas_transport(
                     geom = "linear",
                     diam =     3.62,
                     well_depth =    97.53,
                     polar =     1.76,
                     rot_relax =     4.00),
    note = "121286"
       )

species(name = "N2(C3)",
    atoms = " N:2 ",
    thermo = (
       NASA( [  300.00,  1000.00], [  3.298677000E+00,   1.408240400E-03, 
               -3.963222000E-06,   5.641515000E-09,  -2.444854000E-12,
               -1.020899900E+03,   3.950372000E+00] ),
       NASA( [ 1000.00,  5000.00], [  2.926640000E+00,   1.487976800E-03, 
               -5.684760000E-07,   1.009703800E-10,  -6.753351000E-15,
               -9.227977000E+02,   5.980528000E+00] )
             ),
    transport = gas_transport(
                     geom = "linear",
                     diam =     3.62,
                     well_depth =    97.53,
                     polar =     1.76,
                     rot_relax =     4.00),
    note = "121286"
       )

species(name = "N(2D)",
    atoms = " N:1 ",
    thermo = (
       NASA( [  200.00,  1000.00], [  2.500000000E+00,   0.000000000E+00, 
                0.000000000E+00,   0.000000000E+00,   0.000000000E+00,
                5.610463700E+04,   4.193908700E+00] ),
       NASA( [ 1000.00,  6000.00], [  2.415942900E+00,   1.748906500E-04, 
               -1.190236900E-07,   3.022624500E-11,  -2.036098200E-15,
                5.613377300E+04,   4.649609600E+00] )
             ),
    transport = gas_transport(
                     geom = "atom",
                     diam =     3.30,
                     well_depth =    71.40),
    note = "L 6/88"
       )

species(name = "O(1D)",
    atoms = " O:1 ",
    thermo = (
       NASA( [  200.00,  1000.00], [  3.168267100E+00,  -3.279318840E-03, 
                6.643063960E-06,  -6.128066240E-09,   2.112659710E-12,
                2.912225920E+04,   2.051933460E+00] ),
       NASA( [ 1000.00,  3500.00], [  2.569420780E+00,  -8.597411370E-05, 
                4.194845890E-08,  -1.001777990E-11,   1.228336910E-15,
                2.921757910E+04,   4.784338640E+00] )
             ),
    transport = gas_transport(
                     geom = "atom",
                     diam =     2.75,
                     well_depth =    80.00),
    note = "L 1/90"
       )

species(name = "O(1S)",
    atoms = " O:1 ",
    thermo = (
       NASA( [  200.00,  1000.00], [  3.168267100E+00,  -3.279318840E-03, 
                6.643063960E-06,  -6.128066240E-09,   2.112659710E-12,
                2.912225920E+04,   2.051933460E+00] ),
       NASA( [ 1000.00,  3500.00], [  2.569420780E+00,  -8.597411370E-05, 
                4.194845890E-08,  -1.001777990E-11,   1.228336910E-15,
                2.921757910E+04,   4.784338640E+00] )
             ),
    transport = gas_transport(
                     geom = "atom",
                     diam =     2.75,
                     well_depth =    80.00),
    note = "L 1/90"
       )

species(name = "N2^+",
    atoms = " N:2 E:-1",
    thermo = (
       NASA( [  300.00,  1000.00], [  3.298677000E+00,   1.408240400E-03, 
               -3.963222000E-06,   5.641515000E-09,  -2.444854000E-12,
               -1.020899900E+03,   3.950372000E+00] ),
       NASA( [ 1000.00,  5000.00], [  2.926640000E+00,   1.487976800E-03, 
               -5.684760000E-07,   1.009703800E-10,  -6.753351000E-15,
               -9.227977000E+02,   5.980528000E+00] )
             ),
    transport = gas_transport(
                     geom = "linear",
                     diam =     3.62,
                     well_depth =    97.53,
                     polar =     1.76,
                     rot_relax =     4.00),
    note = "121286"
       )

species(name = "O2^+",
    atoms = " O:2 E:-1",
    thermo = (
       NASA( [  200.00,  1000.00], [  3.782456360E+00,  -2.996734160E-03, 
                9.847302010E-06,  -9.681295090E-09,   3.243728370E-12,
               -1.063943560E+03,   3.657675730E+00] ),
       NASA( [ 1000.00,  3500.00], [  3.282537840E+00,   1.483087540E-03, 
               -7.579666690E-07,   2.094705550E-10,  -2.167177940E-14,
               -1.088457720E+03,   5.453231290E+00] )
             ),
    transport = gas_transport(
                     geom = "linear",
                     diam =     3.46,
                     well_depth =   107.40,
                     polar =     1.60,
                     rot_relax =     3.80),
    note = "TPIS89"
       )

species(name = "H2^+",
    atoms = " H:2 E:-1",
    thermo = (
       NASA( [  200.00,  1000.00], [  2.344331120E+00,   7.980520750E-03, 
               -1.947815100E-05,   2.015720940E-08,  -7.376117610E-12,
               -9.179351730E+02,   6.830102380E-01] ),
       NASA( [ 1000.00,  3500.00], [  3.337279200E+00,  -4.940247310E-05, 
                4.994567780E-07,  -1.795663940E-10,   2.002553760E-14,
               -9.501589220E+02,  -3.205023310E+00] )
             ),
    transport = gas_transport(
                     geom = "linear",
                     diam =     2.92,
                     well_depth =    38.00,
                     polar =     0.79,
                     rot_relax =   280.00),
    note = "TPIS78"
       )

species(name = "H2O^+",
    atoms = " H:2  O:1  E:-1",
    thermo = (
       NASA( [  200.00,  1000.00], [  4.198640560E+00,  -2.036434100E-03, 
                6.520402110E-06,  -5.487970620E-09,   1.771978170E-12,
               -3.029372670E+04,  -8.490322080E-01] ),
       NASA( [ 1000.00,  3500.00], [  3.033992490E+00,   2.176918040E-03, 
               -1.640725180E-07,  -9.704198700E-11,   1.682009920E-14,
               -3.000429710E+04,   4.966770100E+00] )
             ),
    transport = gas_transport(
                     geom = "nonlinear",
                     diam =     2.60,
                     well_depth =   572.40,
                     dipole =     1.84,
                     rot_relax =     4.00),
    note = "L 8/89"
       )

species(name = 'E',
    atoms = ' E:1 ',
    thermo = (
       NASA( [  200.00,  1000.00], [  2.500000000E+00,   0.000000000E+00, 
                0.000000000E+00,   0.000000000E+00,   0.000000000E+00,
               -7.453750000E+02,  -1.172469020E+01] ),
       NASA( [ 1000.00,  6000.00], [  2.500000000E+00,   0.000000000E+00, 
                0.000000000E+00,   0.000000000E+00,   0.000000000E+00,
               -7.453750000E+02,  -1.172469020E+01] )
             ),
        transport=gas_transport(geom='atom',
                                diam=2.05,
                                well_depth=145.0,
                                polar=0.667,
                                rot_relax=0.0),
     note = 'gas L10/92')

#-------------------------------------------------------------------------------
# Reaction data
#-------------------------------------------------------------------------------

