units(length='cm', time='s', quantity='molec', act_energy='K')

ideal_gas(name='h2airplasma',
       elements=' O  H  Ar  N  E ',
       species=['''gri30: H2  H  O  O2  OH  H2O  HO2  H2O2  N2  N  AR''',
                'N2(b3pg) N2(c3pu)',
                'H2(a3sg) H2(b3su) H2(b1su) H2(c1pu)', 
                'O(1d) O(T)',
                'H(T)',
                'O2^+  O4^+  N2^+  N4^+  H2^+  HO2^+  HN2^+  E'],
       reactions=['gri30: all', 'all'],
       transport='Mix',
       options=['skip_undeclared_species', 'skip_undeclared_third_bodies'],
       initial_state=state(temperature=300.0, pressure=OneAtm))

#-------------------------------------------------------------------------------
# Species data
#-------------------------------------------------------------------------------

N2_thermo =(NASA( [  300.00,  1000.00], [  3.298677000E+00,   1.408240400E-03, 
                    -3.963222000E-06,   5.641515000E-09,  -2.444854000E-12,
                    -1.020899900E+03,   3.950372000E+00] ),
            NASA( [ 1000.00,  5000.00], [  2.926640000E+00,   1.487976800E-03, 
                    -5.684760000E-07,   1.009703800E-10,  -6.753351000E-15,
                    -9.227977000E+02,   5.980528000E+00] ))
                     
N2_transport = gas_transport(geom = "linear",
                             diam =     3.62,
                             well_depth =    97.53,
                             polar =     1.76,
                             rot_relax =     4.00)

species(name = "N2(a3su)",
        atoms = " N:2 ",
        thermo = N2_thermo,
        transport = N2_transport)

species(name = "N2(b3pg)",
        atoms = " N:2 ",
        thermo = N2_thermo,
        transport = N2_transport)

species(name = "N2(c3pu)",
        atoms = " N:2 ",
        thermo = N2_thermo,
        transport = N2_transport)

H2_thermo = (NASA( [  200.00,  1000.00], [  2.344331120E+00,   7.980520750E-03, 
                      -1.947815100E-05,   2.015720940E-08,  -7.376117610E-12,
                      -9.179351730E+02,   6.830102380E-01] ),
             NASA( [ 1000.00,  3500.00], [  3.337279200E+00,  -4.940247310E-05, 
                       4.994567780E-07,  -1.795663940E-10,   2.002553760E-14,
                      -9.501589220E+02,  -3.205023310E+00] )) 

H2_transport = gas_transport(geom = "linear",
                             diam =     2.92,
                             well_depth =    38.00,
                             polar =     0.79,
                             rot_relax =   280.00),
 
species(name = "H2(a3sg)",
        atoms = " H:2 ",
        thermo = H2_thermo,
        transport = H2_transport)

species(name = "H2(b3su)",
        atoms = " H:2 ",
        thermo = H2_thermo,
        transport = H2_transport)

species(name = "H2(b1su)",
        atoms = " H:2 ",
        thermo = H2_thermo,
        transport = H2_transport)

species(name = "H2(c1pu)",
        atoms = " H:2 ",
        thermo = H2_thermo,
        transport = H2_transport)


species(name = "O(1d)",
    atoms = " O:1 ",
    thermo = (
       NASA( [  200.00,  1000.00], [  3.168267100E+00,  -3.279318840E-03, 
                6.643063960E-06,  -6.128066240E-09,   2.112659710E-12,
                2.912225920E+04,   2.051933460E+00] ),
       NASA( [ 1000.00,  3500.00], [  2.569420780E+00,  -8.597411370E-05, 
                4.194845890E-08,  -1.001777990E-11,   1.228336910E-15,
                2.921757910E+04,   4.784338640E+00] )
             ),
    transport = gas_transport(
                     geom = "atom",
                     diam =     2.75,
                     well_depth =    80.00),
    note = "L 1/90"
       )

species(name = "O(T)",
    atoms = " O:1 ",
    thermo = (
       NASA( [  200.00,  1000.00], [  3.168267100E+00,  -3.279318840E-03, 
                6.643063960E-06,  -6.128066240E-09,   2.112659710E-12,
                2.912225920E+04,   2.051933460E+00] ),
       NASA( [ 1000.00,  3500.00], [  2.569420780E+00,  -8.597411370E-05, 
                4.194845890E-08,  -1.001777990E-11,   1.228336910E-15,
                2.921757910E+04,   4.784338640E+00] )
             ),
    transport = gas_transport(
                     geom = "atom",
                     diam =     2.75,
                     well_depth =    80.00),
    note = "L 1/90"
       )

species(name = "H(T)",
    atoms = " H:1 ",
    thermo = (
       NASA( [  200.00,  1000.00], [  2.500000000E+00,   7.053328190E-13, 
               -1.995919640E-15,   2.300816320E-18,  -9.277323320E-22,
                2.547365990E+04,  -4.466828530E-01] ),
       NASA( [ 1000.00,  3500.00], [  2.500000010E+00,  -2.308429730E-11, 
                1.615619480E-14,  -4.735152350E-18,   4.981973570E-22,
                2.547365990E+04,  -4.466829140E-01] )
             ),
    transport = gas_transport(
                     geom = "atom",
                     diam =     2.05,
                     well_depth =   145.00),
    note = "L 7/88"
       )

species(name = "N2^+",
    atoms = " N:2 E:-1",
    thermo = (
       NASA( [  298.15,  1000.00], [  3.775407110E+00,  -2.064591570E-03, 
                4.757523010E-06,  -3.156642280E-09,   6.705099730E-13,
                1.804811150E+05,   2.693221860E+00] ),
       NASA( [ 1000.00,  6000.00], [  3.586613630E+00,   2.530719490E-04, 
                1.847782140E-07,  -4.552572230E-11,   3.268180290E-15,
                1.803909940E+05,   3.095841500E+00] )
             ),
    transport = gas_transport(
                     geom = "linear",
                     diam =     3.62,
                     well_depth =    97.53,
                     polar =     1.76,
                     rot_relax =     4.00),
    note = "wrong trans"
       )

species(name = "O2^+",
    atoms = " O:2 E:-1",
    thermo = (
       NASA( [  298.15,  1000.00], [  4.610171670E+00,  -6.359519520E-03, 
                1.424256240E-05,  -1.209979230E-08,   3.709568780E-12,
                1.397422290E+05,  -2.013268740E-01] ),
       NASA( [ 1000.00,  6000.00], [  3.316759220E+00,   1.115222440E-03, 
               -3.834925560E-07,   5.727846870E-11,  -2.776483810E-15,
                1.398768230E+05,   5.447264760E+00] )
             ),
    transport = gas_transport(
                     geom = "linear",
                     diam =     3.46,
                     well_depth =   107.40,
                     polar =     1.60,
                     rot_relax =     3.80),
    note = "wrong trans"
       )

species(name = "O4^+",
    atoms = " O:4 E:-1",
    thermo = (
       NASA( [  200.00,  1000.00], [  3.782456360E+00,  -2.996734160E-03, 
                9.847302010E-06,  -9.681295090E-09,   3.243728370E-12,
               -1.063943560E+03,   3.657675730E+00] ),
       NASA( [ 1000.00,  3500.00], [  3.282537840E+00,   1.483087540E-03, 
               -7.579666690E-07,   2.094705550E-10,  -2.167177940E-14,
               -1.088457720E+03,   5.453231290E+00] )
             ),
    transport = gas_transport(
                     geom = "nonlinear",
                     diam =     3.46,
                     well_depth =   107.40,
                     polar =     1.60,
                     rot_relax =     3.80),
    note = "wrong thermo and trans"
       )

species(name = "H2^+",
    atoms = " H:2 E:-1",
    thermo = (
       NASA( [  298.15,  1000.00], [  3.772560720E+00,  -1.957465890E-03, 
                4.548120470E-06,  -2.821521410E-09,   5.339692090E-13,
                1.786941040E+05,  -3.966090860E+00] ),
       NASA( [ 1000.00,  6000.00], [  3.442047650E+00,   5.990832390E-04, 
                6.691336850E-08,  -3.435743730E-11,   1.976265990E-15,
                1.786496860E+05,  -2.794989490E+00] )
             ),
    transport = gas_transport(
                     geom = "linear",
                     diam =     2.92,
                     well_depth =    38.00,
                     polar =     0.79,
                     rot_relax =   280.00),
    note = "wrong trans"
       )

species(name = "H3^+",
    atoms = " H:3 E:-1",
    thermo = (
       NASA( [  200.00,  1000.00], [  2.344331120E+00,   7.980520750E-03, 
               -1.947815100E-05,   2.015720940E-08,  -7.376117610E-12,
               -9.179351730E+02,   6.830102380E-01] ),
       NASA( [ 1000.00,  3500.00], [  3.337279200E+00,  -4.940247310E-05, 
                4.994567780E-07,  -1.795663940E-10,   2.002553760E-14,
               -9.501589220E+02,  -3.205023310E+00] )
             ),
    transport = gas_transport(
                     geom = "nonlinear",
                     diam =     2.92,
                     well_depth =    38.00,
                     polar =     0.79,
                     rot_relax =   280.00),
    note = "wrong thermo and trans"
       )


species(name = "N4^+",
    atoms = " N:4 E:-1",
    thermo = (
       NASA( [  300.00,  1000.00], [  3.298677000E+00,   1.408240400E-03, 
               -3.963222000E-06,   5.641515000E-09,  -2.444854000E-12,
               -1.020899900E+03,   3.950372000E+00] ),
       NASA( [ 1000.00,  5000.00], [  2.926640000E+00,   1.487976800E-03, 
               -5.684760000E-07,   1.009703800E-10,  -6.753351000E-15,
               -9.227977000E+02,   5.980528000E+00] )
             ),
    transport = gas_transport(
                     geom = "nonlinear",
                     diam =     3.62,
                     well_depth =    97.53,
                     polar =     1.76,
                     rot_relax =     4.00),
    note = "wrong thermo and trans"
       )

species(name = "HO2^+",
    atoms = " H:1  O:2  E:-1",
    thermo = (
       NASA( [  200.00,  1000.00], [  4.301798010E+00,  -4.749120510E-03, 
                2.115828910E-05,  -2.427638940E-08,   9.292251240E-12,
                2.948080400E+02,   3.716662450E+00] ),
       NASA( [ 1000.00,  3500.00], [  4.017210900E+00,   2.239820130E-03, 
               -6.336581500E-07,   1.142463700E-10,  -1.079085350E-14,
                1.118567130E+02,   3.785102150E+00] )
             ),
    transport = gas_transport(
                     geom = "nonlinear",
                     diam =     3.46,
                     well_depth =   107.40,
                     rot_relax =     1.00),
    note = "wrong thermo and trans"
       )

species(name = "HN2^+",
    atoms = " H:1  N:2  E:-1",
    thermo = (
       NASA( [  200.00,  1000.00], [  4.204002900E+00,  -2.106138500E-03, 
                7.106834800E-06,  -5.611519700E-09,   1.644071700E-12,
                2.188591000E+04,  -1.418424800E-01] ),
       NASA( [ 1000.00,  6000.00], [  2.834742100E+00,   3.207308200E-03, 
               -9.339080400E-07,   1.370295300E-10,  -7.920614400E-15,
                2.217195700E+04,   6.520416300E+00] )
             ),
    transport = gas_transport(
                     geom = "nonlinear",
                     diam =     2.65,
                     well_depth =    80.00,
                     polar =     2.26,
                     rot_relax =     4.00),
    note = "wrong thermo and trans"
       )

species(name = 'E',
    atoms = ' E:1 ',
    thermo = (
       NASA( [  200.00,  1000.00], [  2.500000000E+00,   0.000000000E+00, 
                0.000000000E+00,   0.000000000E+00,   0.000000000E+00,
               -7.453750000E+02,  -1.172469020E+01] ),
       NASA( [ 1000.00,  6000.00], [  2.500000000E+00,   0.000000000E+00, 
                0.000000000E+00,   0.000000000E+00,   0.000000000E+00,
               -7.453750000E+02,  -1.172469020E+01] )
             ),
        transport=gas_transport(geom='atom',
                                diam=2.05,
                                well_depth=145.0,
                                polar=0.667,
                                rot_relax=0.0),
     note = 'wrong trans')

#-------------------------------------------------------------------------------
# Reaction data
#-------------------------------------------------------------------------------

# N2(a3su)
#reaction("N2(a3su) + N2 => N2 + N2"      , [3.00E-18, 0.0, 0.0])
#reaction("2 N2(a3su) => N2 + N2(b3pg)"   , [3.00E-18, 0.0, 0.0])
#reaction("2 N2(a3su) => N2 + N2(c3pu)"   , [5.54E-04, -2.64, 0.0])
#reaction("N2(a3su) + O2 => N2 + 2 O(T)"  , [2.54E-12, 0.0, 0.0])
#reaction("N2(a3su) + O2 => N2 + O2(b1sg)", [7.50E-13, 0.0, 0.0])
#reaction("N2(a3su) + H2 => N2 + 2 H(T)"  , [4.40E-10, 0.0, 3500.0])

# N2(b3pg) collision to H2 will produce N2(a3su)
reaction("N2(b3pg) + O2 => N2 + 2 O(T)", [3.00E-10, 0.0, 0.0])
reaction("N2(b3pg) + N2 => 2 N2",        [1.00E-12, 0.0, 0.0])
#reaction("N2(b3pg) + H2 => N2(a3su) + H2", [2.50E-11, 0.0, 0.0])

# N2(c3pu)
reaction("N2(c3pu) => N2(b3pg)", [2.73E+07, 0.0, 0.0])
reaction("N2(c3pu) + N2 => 2 N2", [5.00E-11, 0.0, 0.0])
reaction("N2(c3pu) + H2 => N2 + 2 H(T)", [3.00E-10, 0.0, 0.0])
reaction("N2(c3pu) + O2 => N2 + 2 O(T)", [3.00E-10, 0.0, 0.0])

# H2(b3su)
reaction("H2(b3su) => 2 H(T)"          , [1.00E+09, 0.0, 0.0])

# H2(a3sg)
#reaction("H2(a3sg) => H2(b3su)"        , [9.10E+07, 0.0, 0.0])
reaction("H2(a3sg) + N2 => H2 + N2(b3pg)", [5.00E-11, 0.0, 0.0])
reaction("H2(a3sg) + O2 => H2 + 2 O(T)", [1.00E-10, 0.0, 0.0])
reaction("H2(a3sg) + H2 => H2 + 2 H(T)", [1.00E-10, 0.0, 0.0])

# H2(b1su)
reaction("H2(b1su) + N2 => H2 + N2(b3pg)", [5.00E-11, 0.0, 0.0])
reaction("H2(b1su) + O2 => H2 + 2 O(T)", [1.00E-10, 0.0, 0.0])
reaction("H2(b1su) + H2 => H2 + 2 H(T)", [1.00E-10, 0.0, 0.0])

# H2(c1pu)
reaction("H2(c1pu) + N2 => H2 + N2(b3pg)", [5.00E-11, 0.0, 0.0])
reaction("H2(c1pu) + O2 => H2 + 2 O(T)", [1.00E-10, 0.0, 0.0])
reaction("H2(c1pu) + H2 => H2 + 2 H(T)", [1.00E-10, 0.0, 0.0])

# H(T) chain braching and quenching
reaction("H(T) + O2 => O + OH", [1.60E-10, 0.0, 0.0])
three_body_reaction("H(T) + M => H + M", [1.60E-10, 0.0, 0.0])

# O(T) chain braching and quenching
reaction("O(T) + H2 => H + OH", [1.50E-11, 0.0, 0.0])
three_body_reaction("O(T) + M => O + M", [1.3E-10, 0.0, 0.0])

# O(1d) chain branching and quenching
reaction("O(1d) + H2 => H + OH", [1.10E-10, 0.0, 0.0])
reaction("O(1d) + O2 => O + O2", [1.70E-05, -2.5, 340.0])
reaction("O(1d) + N2 => O + N2", [3.20E-11, 0.0, 107.0])
reaction("O(1d) + H2 => O + H2", [1.10E-10, 0.0, 0.0])

# reaction of ions for intermediate concentration of plasma
three_body_reaction("N2^+ + N2 + M => M + N4^+", [5.00E-29, 0.0, 0.0])
reaction("N4^+ + O2 => 2 N2 + O2^+", [2.50E-10, 0.0, 0.0])
reaction("O2^+ + O2 + N2 => O4^+ + N2", [1.80E-28, -0.75, 0.0])
reaction("O2^+ + O2 + O2 => O4^+ + O2", [2.00E-22, -3.20, 0.0])
reaction("N4^+ + E => 2 N2", [1.50E-05, 0.0, 0.0])
reaction("O4^+ + E => O2 + O(T) + O(1d)", [6.50E-05, -0.48, 0.0])
reaction("H2^+ + N2 => H + HN2^+", [2.00E-09, 0.0, 0.0])
reaction("H2^+ + O2 => H + HO2^+", [1.09E-09, 0.0, 0.0])
reaction("H2^+ + O2 => H2 + O2^+", [8.00E-10, 0.0, 0.0])
reaction("HO2^+ + E => O2 + H(T)", [5.20E-06, -0.5, 0.0])
reaction("HN2^+ + E => N2 + H(T)", [2.90E-05, -0.9, 0.0])
