units(length='cm', time='s', quantity='mol', act_energy='K')

plasma(name='ohmech',
       elements=' O  H  Ar  E',
       species=['''h2o2: H2  H  O  O2  OH  H2O  HO2  H2O2  AR ''',
                'O2(X3)  O2(a1)  O2(b1)  O3'],
       reactions=['h2o2: all', 'all'],
       transport='Mix',
       options=['skip_undeclared_species', 'skip_undeclared_third_bodies'],
       initial_state=state(temperature=300.0, pressure=OneAtm))

#-------------------------------------------------------------------------------
# Species data
#-------------------------------------------------------------------------------
species(name = "O2(a1)",
    atoms = " O:2  E:-1",
    thermo = (
       NASA( [  200.00,  1000.00], [  3.782456360E+00,  -2.996734160E-03, 
                9.847302010E-06,  -9.681295090E-09,   3.243728370E-12,
               -1.063943560E+03,   3.657675730E+00] ),
       NASA( [ 1000.00,  3500.00], [  3.282537840E+00,   1.483087540E-03, 
               -7.579666690E-07,   2.094705550E-10,  -2.167177940E-14,
               -1.088457720E+03,   5.453231290E+00] )
             ),
    transport = gas_transport(
                     geom = "linear",
                     diam =     3.46,
                     well_depth =   107.40,
                     polar =     1.60,
                     rot_relax =     3.80),
    note = "TPIS89"
       )

species(name = 'E',
    atoms = ' E:1 ',
    thermo = (
       NASA( [  200.00,  1000.00], [  2.500000000E+00,   0.000000000E+00, 
                0.000000000E+00,   0.000000000E+00,   0.000000000E+00,
               -7.453750000E+02,  -1.172469020E+01] ),
       NASA( [ 1000.00,  6000.00], [  2.500000000E+00,   0.000000000E+00, 
                0.000000000E+00,   0.000000000E+00,   0.000000000E+00,
               -7.453750000E+02,  -1.172469020E+01] )
             ),
        transport=gas_transport(geom='atom',
                                diam=2.05,
                                well_depth=145.0,
                                polar=0.667,
                                rot_relax=0.0),
     note = 'gas L10/92')

#-------------------------------------------------------------------------------
# Reaction data
#-------------------------------------------------------------------------------
#reaction 1
reaction("O2(X3) + M => O + O + M", [5.4E18, -1, 59000])

#reaction 2
#reaction("O2(a1) + M = 2 O + M", [])



reaction("O2(a1) + H => OH + O", [1.1E+14, 0, 3188])
reaction("H2 + O2(a1) => OH + OH", [1.7E+15, 0, 17906])
reaction("H2 + O2(a1) => H + HO2", [2.1E+13, 0, 18216])





