units(length='cm', time='s', quantity='molec', act_energy='K')

ideal_gas(name='h2airplasma',
       elements=' O  H  Ar  N  E',
       species=['''gri30: H2  H  O  O2  OH  H2O  HO2  H2O2  N2  AR''',
                'O2^+ E'],
       reactions=['gri30: all', 'all'],
       transport='Mix',
       options=['skip_undeclared_species', 'skip_undeclared_third_bodies'],
       initial_state=state(temperature=300.0, pressure=OneAtm))

#-------------------------------------------------------------------------------
# Species data
#-------------------------------------------------------------------------------

N2_thermo =(NASA( [  300.00,  1000.00], [  3.298677000E+00,   1.408240400E-03, 
                    -3.963222000E-06,   5.641515000E-09,  -2.444854000E-12,
                    -1.020899900E+03,   3.950372000E+00] ),
            NASA( [ 1000.00,  5000.00], [  2.926640000E+00,   1.487976800E-03, 
                    -5.684760000E-07,   1.009703800E-10,  -6.753351000E-15,
                    -9.227977000E+02,   5.980528000E+00] ))
                     
N2_transport = gas_transport(geom = "linear",
                             diam =     3.62,
                             well_depth =    97.53,
                             polar =     1.76,
                             rot_relax =     4.00)

species(name = "N2(c3pu)",
        atoms = " N:2 ",
        thermo = N2_thermo,
        transport = N2_transport)

H2_thermo = (NASA( [  200.00,  1000.00], [  2.344331120E+00,   7.980520750E-03, 
                      -1.947815100E-05,   2.015720940E-08,  -7.376117610E-12,
                      -9.179351730E+02,   6.830102380E-01] ),
             NASA( [ 1000.00,  3500.00], [  3.337279200E+00,  -4.940247310E-05, 
                       4.994567780E-07,  -1.795663940E-10,   2.002553760E-14,
                      -9.501589220E+02,  -3.205023310E+00] )) 


species(name = "O(T)",
    atoms = " O:1 ",
    thermo = (
       NASA( [  200.00,  1000.00], [  3.168267100E+00,  -3.279318840E-03, 
                6.643063960E-06,  -6.128066240E-09,   2.112659710E-12,
                2.912225920E+04,   2.051933460E+00] ),
       NASA( [ 1000.00,  3500.00], [  2.569420780E+00,  -8.597411370E-05, 
                4.194845890E-08,  -1.001777990E-11,   1.228336910E-15,
                2.921757910E+04,   4.784338640E+00] )
             ),
    transport = gas_transport(
                     geom = "atom",
                     diam =     2.75,
                     well_depth =    80.00),
    note = "L 1/90"
       )

species(name = "O(1D)",
    atoms = " O:1 ",
    thermo = (
       NASA( [  200.00,  1000.00], [  3.168267100E+00,  -3.279318840E-03, 
                6.643063960E-06,  -6.128066240E-09,   2.112659710E-12,
                2.912225920E+04,   2.051933460E+00] ),
       NASA( [ 1000.00,  3500.00], [  2.569420780E+00,  -8.597411370E-05, 
                4.194845890E-08,  -1.001777990E-11,   1.228336910E-15,
                2.921757910E+04,   4.784338640E+00] )
             ),
    transport = gas_transport(
                     geom = "atom",
                     diam =     2.75,
                     well_depth =    80.00),
    note = "L 1/90"
       )

species(name = "O(1S)",
    atoms = " O:1 ",
    thermo = (
       NASA( [  200.00,  1000.00], [  3.168267100E+00,  -3.279318840E-03, 
                6.643063960E-06,  -6.128066240E-09,   2.112659710E-12,
                2.912225920E+04,   2.051933460E+00] ),
       NASA( [ 1000.00,  3500.00], [  2.569420780E+00,  -8.597411370E-05, 
                4.194845890E-08,  -1.001777990E-11,   1.228336910E-15,
                2.921757910E+04,   4.784338640E+00] )
             ),
    transport = gas_transport(
                     geom = "atom",
                     diam =     2.75,
                     well_depth =    80.00),
    note = "L 1/90"
       )

species(name = "H(T)",
    atoms = " H:1 ",
    thermo = (
       NASA( [  200.00,  1000.00], [  2.500000000E+00,   7.053328190E-13, 
               -1.995919640E-15,   2.300816320E-18,  -9.277323320E-22,
                2.547365990E+04,  -4.466828530E-01] ),
       NASA( [ 1000.00,  3500.00], [  2.500000010E+00,  -2.308429730E-11, 
                1.615619480E-14,  -4.735152350E-18,   4.981973570E-22,
                2.547365990E+04,  -4.466829140E-01] )
             ),
    transport = gas_transport(
                     geom = "atom",
                     diam =     2.05,
                     well_depth =   145.00),
    note = "L 7/88"
       )

species(name = "O2(a1dg)",
    atoms = " O:2 ",
    thermo = (
       NASA( [  200.00,  1000.00], [  3.782456360E+00,  -2.996734160E-03, 
                9.847302010E-06,  -9.681295090E-09,   3.243728370E-12,
               -1.063943560E+03,   3.657675730E+00] ),
       NASA( [ 1000.00,  3500.00], [  3.282537840E+00,   1.483087540E-03, 
               -7.579666690E-07,   2.094705550E-10,  -2.167177940E-14,
               -1.088457720E+03,   5.453231290E+00] )
             ),
    transport = gas_transport(
                     geom = "linear",
                     diam =     3.46,
                     well_depth =   107.40,
                     polar =     1.60,
                     rot_relax =     3.80),
    note = "TPIS89"
       )

species(name = "O2^+",
    atoms = " O:2  E:-1 ",
    thermo = (
       NASA( [  298.15,  1000.00], [  4.610171670E+00,  -6.359519520E-03, 
                1.424256240E-05,  -1.209979230E-08,   3.709568780E-12,
                1.397422290E+05,  -2.013268740E-01] ),
       NASA( [ 1000.00,  6000.00], [  3.316759220E+00,   1.115222440E-03, 
               -3.834925560E-07,   5.727846870E-11,  -2.776483810E-15,
                1.398768230E+05,   5.447264760E+00] )
             ),
    transport = gas_transport(
                     geom = "linear",
                     diam =     3.46,
                     well_depth =   107.40,
                     polar =     1.60,
                     rot_relax =     3.80),
    # note = "TPIS89"
       )

species(name = 'E',
    atoms = ' E:1 ',
    thermo = (
       NASA( [  200.00,  1000.00], [  2.500000000E+00,   0.000000000E+00, 
                0.000000000E+00,   0.000000000E+00,   0.000000000E+00,
               -7.453750000E+02,  -1.172469020E+01] ),
       NASA( [ 1000.00,  6000.00], [  2.500000000E+00,   0.000000000E+00, 
                0.000000000E+00,   0.000000000E+00,   0.000000000E+00,
               -7.453750000E+02,  -1.172469020E+01] )
             ),
        transport=gas_transport(geom='atom',
                                diam=2.05,
                                well_depth=145.0,
                                polar=0.667,
                                rot_relax=0.0),
     note = 'gas L10/92')

#-------------------------------------------------------------------------------
# Reaction data
#-------------------------------------------------------------------------------
#reaction("N2(c3pu) + N2 => 2 N2", [5.00E-11, 0.0, 0.0])
#reaction("N2(c3pu) + H2 => N2 + 2 H(T)", [3.00E-10, 0.0, 0.0])
#reaction("N2(c3pu) + O2 => N2 + 2 O(T)", [3.00E-10, 0.0, 0.0])

# H(T) chain braching and quenching
#reaction("H(T) + O2 => O + OH", [1.60E-10, 0.0, 0.0])
#three_body_reaction("H(T) + M => H + M", [1.60E-10, 0.0, 0.0])

# O(T) chain braching and quenching
#reaction("O(T) + H2 => H + OH", [1.50E-11, 0.0, 0.0])
#three_body_reaction("O(T) + M => O + M", [1.3E-10, 0.0, 0.0])

#reaction("O2(a1dg) + H => O + OH", [6.50E-11, 0.0, 2530.0])
#reaction("O2(a1dg) + H2 => OH + OH", [2.80E-09, 0.0, 17900.0])
#reaction("O2(a1dg) => O2", [3.00E-04, 0.0, 0.0])

#reaction("O2^+ + E => O(T) + O(T)", [3.20e-06, -0.70, 0.0])
#reaction("O(T) + H2 => H + OH", [1.50E-11, 0.0, 0.0])
#three_body_reaction("O(T) + M => O + M", [1.3E-10, 0.0, 0.0])

#reaction("O2^+ + E + E => O2 + E", [9.0e-14, -2.0, 0.0])
#reaction("O2^+ + E + E => O2 + E", [0.0, -2.0, 0.0])
